<routes>
    <vType id="car1"
           length="4.5" accel="2.60" decel="4.0" emergencyDecel="8" color="green" carFollowModel="ACC" lcCooperative="0.7" lcAssertive="2"
           sigma="0.5" maxSpeed="55.55" tau="2.3" minGap="2.5" speedFactor= "0.78" departSpeed="max"/>    
    <vType id="car2"
           length="4.5" accel="2.4" decel="4.5" emergencyDecel="8" color="green" carFollowModel="ACC" lcCooperative="1.0" lcAssertive="1.5"
           sigma="0.5" maxSpeed="55.55" tau="2.3" minGap="2.5" speedFactor= "0.88" departSpeed="max"/>
    <vType id="car3"
           length="4.5" accel="2.6" decel="4.5" emergencyDecel="8" color="green" carFollowModel="ACC" lcCooperative="0.4" lcAssertive="1.00"
           sigma="0.5" maxSpeed="55.55" tau="2.3" minGap="2.5" speedFactor= "0.7" departSpeed="max"/>
    <vType id="car4"
           length="4.0" accel="2.3" decel="4.5" emergencyDecel="8" color="green" carFollowModel="ACC" lcCooperative="0.5" lcAssertive="1.3"
           sigma="0.5" maxSpeed="55.55" tau="2.3" minGap="2.5" speedFactor= "0.72" departSpeed="max"/>
    <vType id="car5"
           length="4.5" accel="3.2" decel="4.5" emergencyDecel="8" color="red" carFollowModel="CACC" lcCooperative="1.0" lcAssertive="1.00"
           sigma="0.3" maxSpeed="70.00" tau="2.3" minGap="2.5" speedFactor= "1.0" departSpeed="max"/>
    <vType id="car6"
           length="4.5" accel="3.2" decel="5.0" emergencyDecel="8" color="blue" carFollowModel="ACC" lcCooperative="0.9" lcAssertive="1.00"
           sigma="0.4" maxSpeed="70.00" tau="2.0" minGap="2.5" speedFactor= "1.0" departSpeed="max"/>
    <vType id="car7"
           length="4.5" accel="2.70" decel="5.0" emergencyDecel="8" color="green" carFollowModel="ACC" lcCooperative="0.6" lcAssertive="1.3"
           sigma="0.5" maxSpeed="55.55" tau="2.3" minGap="2.5" speedFactor= "0.694" departSpeed="max"/>
    <vType id="car8"
           length="4.5" accel="3.2" decel="4.5" emergencyDecel="8" color="green" carFollowModel="ACC" lcCooperative="0.5" lcAssertive="1.00"
           sigma="0.5" maxSpeed="55.55" tau="2.0" minGap="2.5" speedFactor= "1.0" departSpeed="max"/>
    <vType id="car9"
           length="4.5" accel="3.80" decel="4.5" emergencyDecel="8" color="green" carFollowModel="ACC" lcCooperative="0.6" lcAssertive="2.00"
           sigma="0.5" maxSpeed="55.55" tau="2.3" minGap="2.5" speedFactor= "0.80" departSpeed="max"/>
    <vType id="car10"
           length="4.5" accel="3.1" decel="4.5" emergencyDecel="8" color="green" carFollowModel="ACC" lcCooperative="0.9" lcAssertive="1.50"
           sigma="0.5" maxSpeed="55.55" tau="2.5" minGap="2.5" speedFactor= "0.95" departSpeed="max"/>

   <vType id="av"
           length="4.5" accel="2.6" decel="4.5" emergencyDecel="8" color="blue"
           sigma="0.2" maxSpeed="30" tau="1.0" minGap="1.5" carFollowModel="CACC"/>


    <route id="route_0" edges="E11"/>
    <route id="route_1" edges="E11"/>



<!-- <vehicle id="4" type="car1" route="route_0" depart="0" color="red"/>
    <flow id="carflow" type="car" beg="0" end="0" number="100" route="route_0" departure="random"/>
    <flow id="carflow2" type="av" beg="0" end="0" number="2" from="E22" to="E12" departure="random"/> -->

 
   <vehicle id="1" type="car1" route="route_0" depart="0" departLane="1">
        <param key="has.ssm.device" value="true"/>
        <param key="device.ssm.measures" value="TTC DRAC PET TGAP BR SGAP"/>
        <param key="device.ssm.thresholds" value="10.0 3.0 2.0 0.5 0.0 0.2"/> 
        <param key="device.ssm.range" value="50.0" />
        <param key="device.ssm.extratime" value="5.0" />
        <param key="device.ssm.file" value="ssm_v0.xml" />
        <param key="device.ssm.trajectories" value="false" />
        <param key="device.ssm.geo" value="false" />
   </vehicle>
    <vehicle id="2" type="car2" route="route_0" depart="0" departLane="2">
        <param key="has.ssm.device" value="true"/>
        <param key="device.ssm.measures" value="TTC DRAC PET TGAP BR SGAP"/>
        <param key="device.ssm.thresholds" value="10.0 3.0 2.0 0.5 0.0 0.2"/> 
        <param key="device.ssm.range" value="50.0" />
        <param key="device.ssm.extratime" value="5.0" />
        <param key="device.ssm.file" value="ssm_v0.xml" />
        <param key="device.ssm.trajectories" value="false" />
        <param key="device.ssm.geo" value="false" />
   </vehicle>
    <vehicle id="3" type="car3" route="route_0" depart="0" departLane="0">
        <param key="has.ssm.device" value="true"/>
        <param key="device.ssm.measures" value="TTC DRAC PET TGAP BR SGAP"/>
        <param key="device.ssm.thresholds" value="10.0 3.0 2.0 0.5 0.0 0.2"/> 
        <param key="device.ssm.range" value="50.0" />
        <param key="device.ssm.extratime" value="5.0" />
        <param key="device.ssm.file" value="ssm_v0.xml" />
        <param key="device.ssm.trajectories" value="false" />
        <param key="device.ssm.geo" value="false" />
   </vehicle>
    <vehicle id="4" type="car4" route="route_0" depart="0" departLane="0">
        <param key="has.ssm.device" value="true"/>
        <param key="device.ssm.measures" value="TTC DRAC PET TGAP BR SGAP"/>
        <param key="device.ssm.thresholds" value="10.0 3.0 2.0 0.5 0.0 0.2"/> 
        <param key="device.ssm.range" value="50.0" />
        <param key="device.ssm.extratime" value="5.0" />
        <param key="device.ssm.file" value="ssm_v0.xml" />
        <param key="device.ssm.trajectories" value="false" />
        <param key="device.ssm.geo" value="false" />
   </vehicle>
    <vehicle id="5" type="car5" route="route_0" depart="2" departLane="1">
        <param key="has.ssm.device" value="true"/>
        <param key="has.driverstate.device" value="true"/>
        <param key="device.driverstate.initialAwareness" value="0.99"/>
        <param key="device.ssm.measures" value="TTC DRAC PET TGAP BR SGAP"/>
        <param key="device.ssm.thresholds" value="10.0 3.0 2.0 0.5 0.0 0.2"/> 
        <param key="device.ssm.range" value="50.0" />
        <param key="device.ssm.extratime" value="5.0" />
        <param key="device.ssm.file" value="ssm_v0.xml" />
        <param key="device.ssm.trajectories" value="false" />
        <param key="device.ssm.geo" value="false" />
   </vehicle>
    <vehicle id="6" type="car6" route="route_0" depart="5" departLane="2">
        <param key="has.ssm.device" value="true"/>
        <param key="has.driverstate.device" value="true"/>
        <param key="device.driverstate.initialAwareness" value="0.99"/>
        <param key="device.ssm.measures" value="TTC DRAC PET TGAP BR SGAP"/>
        <param key="device.ssm.thresholds" value="10.0 3.0 2.0 0.5 0.0 0.2"/> 
        <param key="device.ssm.range" value="50.0" />
        <param key="device.ssm.extratime" value="5.0" />
        <param key="device.ssm.file" value="ssm_v0.xml" />
        <param key="device.ssm.trajectories" value="false" />
        <param key="device.ssm.geo" value="false" />
   </vehicle>
    <vehicle id="7" type="car7" route="route_0" depart="7" departLane="1">
        <param key="has.ssm.device" value="true"/>
        <param key="device.ssm.measures" value="TTC DRAC PET TGAP BR SGAP"/>
        <param key="device.ssm.thresholds" value="30.0 3.0 2.0 0.5 0.0 0.2"/> 
        <param key="device.ssm.range" value="50.0" />
        <param key="device.ssm.extratime" value="5.0" />
        <param key="device.ssm.file" value="ssm_v0.xml" />
        <param key="device.ssm.trajectories" value="false" />
        <param key="device.ssm.geo" value="false" />
   </vehicle>
    <vehicle id="8" type="car8" route="route_0" depart="8" departLane="0">
        <param key="has.ssm.device" value="true"/>
        <param key="device.ssm.measures" value="TTC DRAC PET TGAP BR SGAP"/>
        <param key="device.ssm.thresholds" value="30.0 3.0 2.0 0.5 0.0 0.2"/> 
        <param key="device.ssm.range" value="50.0" />
        <param key="device.ssm.extratime" value="5.0" />
        <param key="device.ssm.file" value="ssm_v0.xml" />
        <param key="device.ssm.trajectories" value="false" />
        <param key="device.ssm.geo" value="false" />
   </vehicle>
    <vehicle id="9" type="car9" route="route_0" depart="8" departLane="2">
        <param key="has.ssm.device" value="true"/>
        <param key="device.ssm.measures" value="TTC DRAC PET TGAP BR SGAP"/>
        <param key="device.ssm.thresholds" value="10.0 3.0 2.0 0.5 0.0 0.2"/> 
        <param key="device.ssm.range" value="50.0" />
        <param key="device.ssm.extratime" value="5.0" />
        <param key="device.ssm.file" value="ssm_v0.xml" />
        <param key="device.ssm.trajectories" value="false" />
        <param key="device.ssm.geo" value="false" />
   </vehicle>
    <vehicle id="10" type="car10" route="route_0" depart="8" departLane="2">
        <param key="has.ssm.device" value="true"/>
        <param key="device.ssm.measures" value="TTC DRAC PET TGAP BR SGAP"/>
        <param key="device.ssm.thresholds" value="10.0 3.0 2.0 0.5 0.0 0.2"/> 
        <param key="device.ssm.range" value="50.0" />
        <param key="device.ssm.extratime" value="5.0" />
        <param key="device.ssm.file" value="ssm_v0.xml" />
        <param key="device.ssm.trajectories" value="false" />
        <param key="device.ssm.geo" value="false" />
   </vehicle>
    
</routes>